/*--------------------------------*- C++ -*----------------------------------*\
| =========                 |                                                 |
| \\      /  F ield         | OpenFOAM: The Open Source CFD Toolbox           |
|  \\    /   O peration     | Version:  v1912                                 |
|   \\  /    A nd           | Website:  www.openfoam.com                      |
|    \\/     M anipulation  |                                                 |
\*---------------------------------------------------------------------------*/
FoamFile
{
    version     2.0;
    format      ascii;
    class       polyBoundaryMesh;
    location    "constant/polyMesh";
    object      boundary;
}
// * * * * * * * * * * * * * * * * * * * * * * * * * * * * * * * * * * * * * //

7
(
    building
    {
        type            wall;
        inGroups        1(wall);
        nFaces          44100;
        startFace       16787621;
    }
    ground
    {
        type            wall;
        inGroups        1(wall);
        nFaces          27524;
        startFace       16831721;
    }
    inlet
    {
        type            patch;
        nFaces          32760;
        startFace       16859245;
    }
    left
    {
        type            symmetry;
        inGroups        1(symmetry);
        nFaces          37635;
        startFace       16892005;
    }
    outlet
    {
        type            patch;
        nFaces          32760;
        startFace       16929640;
    }
    right
    {
        type            symmetry;
        inGroups        1(symmetry);
        nFaces          37635;
        startFace       16962400;
    }
    top
    {
        type            symmetry;
        inGroups        1(symmetry);
        nFaces          32424;
        startFace       17000035;
    }
)

// ************************************************************************* //
