/*--------------------------------*- C++ -*----------------------------------*\
| =========                 |                                                 |
| \\      /  F ield         | OpenFOAM: The Open Source CFD Toolbox           |
|  \\    /   O peration     | Version:  v2412                                 |
|   \\  /    A nd           | Website:  www.openfoam.com                      |
|    \\/     M anipulation  |                                                 |
\*---------------------------------------------------------------------------*/
FoamFile
{
    version     2.0;
    format      ascii;
    class       dictionary;
    object      fvSchemes;
}
// * * * * * * * * * * * * * * * * * * * * * * * * * * * * * * * * * * * * * //

ddtSchemes
{
	
	default         backward;  //second order implicit unbounded
}

gradSchemes
{

	default           leastSquares;	 // second order more accurate that gauss liner but oscilatory
}

divSchemes
{
    default            none;

	div(phi,U)         Gauss filteredLinear2V 1 0;
	div(phid,p)    	   Gauss linear;
    
    div(phi,K)     	   Gauss linear;
    div(phiv,p)    	   Gauss linear;
    div(phi,omega) 	   Gauss linear;
    div(phi,k)     	   Gauss linear;
	div(phi,epsilon)   Gauss linear;
    div(phi,e)     	   Gauss upwind;
    div(phi,h)     	   Gauss upwind;
    div(R)             Gauss linear;
	div((nuEff*dev2(T(grad(U))))) Gauss linear;		 
	div(((rho*nuEff)*dev2(T(grad(U))))) Gauss linear;    
	div(phi,B)      Gauss limitedLinear 1;
	div(B)          Gauss linear;
	div(phi,nuTilda) Gauss limitedLinear 1;

}

laplacianSchemes
{
    default           Gauss linear orthogonal;
	
}

interpolationSchemes
{
    default         linear;
}

snGradSchemes
{
    default           orthogonal;

}

wallDist
{
    method meshWave;
}


// ************************************************************************* //
